
U:\s.gottfried\atrium_speed_tests>Fireframework.ComputeNode.Agent.exe --simulation-id 2 --archive-fds-filename inputfile.fds --application-path .\fds652\fds.exe --data-disk U:\s.gottfried\atrium_speed_tests\WorkingDirs --input-fds-file atrium-with-fans.fds --mpi-path .\fds652\mpiexec.exe --webapi-baseuri https://localhost:44311 --self-test .\fds652\test_mpi.exe --token-endpoint https://one.hhpberlin.de/core/connect/token --mirrortool-path .\Tools\FastCopy.exe --mirror-directory U:\s.gottfried\atrium_speed_tests\DownloadRequests 
 Hello world: rank            0  of            4  running on 
 CLIENTPC112.universe.hhp                                                       
                                                 
 Hello world: rank            1  of            4  running on 
 CLIENTPC112.universe.hhp                                                       
                                                 
 Hello world: rank            2  of            4  running on 
 CLIENTPC112.universe.hhp                                                       
                                                 
 Hello world: rank            3  of            4  running on 
 CLIENTPC112.universe.hhp                                                       
                                                 
 Mesh      1 is assigned to MPI Process      0
 Mesh      2 is assigned to MPI Process      1
 Mesh      3 is assigned to MPI Process      2
 Mesh      4 is assigned to MPI Process      3
 Completed Initialization Step  1
 Completed Initialization Step  2
 Completed Initialization Step  3
 Completed Initialization Step  4

 Fire Dynamics Simulator

 Current Date     : June 13, 2017  19:40:12
 Version          : FDS 6.5.2
 Revision         : Git-r21-0-g4e9103f
 Revision Date    : Wed Aug 24 16:29:46 2016 -0400
 Compilation Date : Wed 08/24/2016  10:28 PM

 MPI Enabled; Number of MPI Processes:          4
 OpenMP Enabled; Number of OpenMP Threads:   1

 MPI version: 3.0
 MPI library version: Intel(R) MPI Library 5.1.3 for Windows* OS


 Job TITLE        : 
 Job ID string    : atrium_with_fans

 Time Step:      1, Simulation Time:      0.06 s
 Time Step:      2, Simulation Time:      0.11 s
 Time Step:      3, Simulation Time:      0.17 s
 Time Step:      4, Simulation Time:      0.22 s
 Time Step:      5, Simulation Time:      0.28 s
 Time Step:      6, Simulation Time:      0.34 s
 Time Step:      7, Simulation Time:      0.39 s
 Time Step:      8, Simulation Time:      0.45 s
 Time Step:      9, Simulation Time:      0.50 s
 Time Step:     10, Simulation Time:      0.56 s
 Time Step:     20, Simulation Time:      1.12 s
 Time Step:     30, Simulation Time:      1.53 s
 Time Step:     40, Simulation Time:      1.84 s
 Time Step:     50, Simulation Time:      2.07 s
 Time Step:     60, Simulation Time:      2.26 s
 Time Step:     70, Simulation Time:      2.44 s
 Time Step:     80, Simulation Time:      2.61 s
 Time Step:     90, Simulation Time:      2.77 s
 Time Step:    100, Simulation Time:      2.91 s
 Time Step:    200, Simulation Time:      4.41 s
 Time Step:    300, Simulation Time:      5.93 s
 Time Step:    400, Simulation Time:      7.56 s
 Time Step:    500, Simulation Time:      9.35 s
 Time Step:    600, Simulation Time:     11.05 s
 Time Step:    700, Simulation Time:     12.62 s
 Time Step:    800, Simulation Time:     14.20 s
 Time Step:    900, Simulation Time:     15.91 s
 Time Step:   1000, Simulation Time:     17.51 s
 Time Step:   1100, Simulation Time:     19.10 s
 Time Step:   1200, Simulation Time:     20.71 s
 Time Step:   1300, Simulation Time:     22.41 s
 Time Step:   1400, Simulation Time:     24.57 s
 Time Step:   1500, Simulation Time:     26.64 s
 Time Step:   1600, Simulation Time:     28.51 s
 Time Step:   1700, Simulation Time:     30.25 s
 Time Step:   1800, Simulation Time:     32.10 s
 Time Step:   1900, Simulation Time:     33.95 s
 Time Step:   2000, Simulation Time:     35.79 s
 Time Step:   2100, Simulation Time:     37.79 s
 Time Step:   2200, Simulation Time:     39.71 s
 Time Step:   2300, Simulation Time:     41.68 s
 Time Step:   2400, Simulation Time:     43.68 s
 Time Step:   2500, Simulation Time:     45.56 s
 Time Step:   2600, Simulation Time:     47.43 s
 Time Step:   2700, Simulation Time:     49.21 s
 Time Step:   2743, Simulation Time:     50.00 s
MPI process      1 has completed
MPI process      2 has completed
MPI process      3 has completed
MPI process      0 has completed

STOP: FDS completed successfully (CHID: atrium_with_fans)
