U:\s.gottfried\atrium_speed_tests>run-atrium-fds653.cmd

U:\s.gottfried\atrium_speed_tests>Fireframework.ComputeNode.Agent.exe --simulation-id 4711 --archive-fds-filename inputfile.fds --application-path .\fds653\fds.exe --data-disk U:\s.gottfried\atrium_speed_tests\WorkingDirs --input-fds-file atrium-with-fans.fds --mpi-path .\fds653\mpiexec.exe --webapi-baseuri https://localhost:44311 --self-test .\fds653\test_mpi.exe --token-endpoint https://one.hhpberlin.de/core/connect/token --mirrortool-path .\Tools\FastCopy.exe --mirror-directory U:\s.gottfried\atrium_speed_tests\DownloadRequests
 Hello world: rank            0  of            4  running on
 CLIENTPC112.universe.hhp

 Hello world: rank            1  of            4  running on
 CLIENTPC112.universe.hhp

 Hello world: rank            2  of            4  running on
 CLIENTPC112.universe.hhp

 Hello world: rank            3  of            4  running on
 CLIENTPC112.universe.hhp

 Mesh      1 is assigned to MPI Process      0
 Mesh      2 is assigned to MPI Process      1
 Mesh      3 is assigned to MPI Process      2
 Mesh      4 is assigned to MPI Process      3
 Completed Initialization Step  1
 Completed Initialization Step  2
 Completed Initialization Step  3
 Completed Initialization Step  4

 Fire Dynamics Simulator

 Current Date     : May 31, 2017  16:21:10
 Version          : FDS 6.5.3
 Revision         : FDS6.5.3-598-geb56ed1
 Revision Date    : Thu Jan 19 16:12:59 2017 -0500
 Compilation Date : Fri 01/20/2017  09:11 PM

 MPI Enabled; Number of MPI Processes:          4
 OpenMP Enabled; Number of OpenMP Threads:   1

 MPI version: 3.0
 MPI library version: Intel(R) MPI Library 5.1.3 for Windows* OS


 Job TITLE        :
 Job ID string    : atrium_with_fans

 Time Step:      1, Simulation Time:      0.06 s
 Time Step:      2, Simulation Time:      0.11 s
 Time Step:      3, Simulation Time:      0.17 s
 Time Step:      4, Simulation Time:      0.22 s
 Time Step:      5, Simulation Time:      0.28 s
 Time Step:      6, Simulation Time:      0.34 s
 Time Step:      7, Simulation Time:      0.39 s
 Time Step:      8, Simulation Time:      0.45 s
 Time Step:      9, Simulation Time:      0.50 s
 Time Step:     10, Simulation Time:      0.56 s
 Time Step:     20, Simulation Time:      1.12 s
 Time Step:     30, Simulation Time:      1.54 s
 Time Step:     40, Simulation Time:      1.85 s
 Time Step:     50, Simulation Time:      2.09 s
 Time Step:     60, Simulation Time:      2.28 s
 Time Step:     70, Simulation Time:      2.44 s
 Time Step:     80, Simulation Time:      2.61 s
 Time Step:     90, Simulation Time:      2.75 s
 Time Step:    100, Simulation Time:      2.90 s
 Time Step:    200, Simulation Time:      4.41 s
 Time Step:    300, Simulation Time:      5.86 s
 Time Step:    400, Simulation Time:      6.91 s
 Time Step:    500, Simulation Time:      7.76 s
 Time Step:    600, Simulation Time:      8.58 s
 Time Step:    700, Simulation Time:      9.36 s
 Time Step:    800, Simulation Time:     10.13 s
 Time Step:    900, Simulation Time:     10.89 s
 Time Step:   1000, Simulation Time:     11.65 s
 Time Step:   1100, Simulation Time:     12.40 s
 Time Step:   1200, Simulation Time:     13.16 s
 Time Step:   1300, Simulation Time:     13.92 s
 Time Step:   1400, Simulation Time:     14.67 s
 Time Step:   1500, Simulation Time:     15.42 s
 Time Step:   1600, Simulation Time:     16.16 s
 Time Step:   1700, Simulation Time:     16.91 s
 Time Step:   1800, Simulation Time:     17.65 s
 Time Step:   1900, Simulation Time:     18.39 s
 Time Step:   2000, Simulation Time:     19.12 s
 Time Step:   2100, Simulation Time:     19.86 s
 Time Step:   2200, Simulation Time:     20.60 s
 Time Step:   2300, Simulation Time:     21.35 s
 Time Step:   2400, Simulation Time:     22.09 s
 Time Step:   2500, Simulation Time:     22.84 s
 Time Step:   2600, Simulation Time:     23.60 s
 Time Step:   2700, Simulation Time:     24.34 s
 Time Step:   2800, Simulation Time:     25.07 s
 Time Step:   2900, Simulation Time:     25.81 s
 Time Step:   3000, Simulation Time:     26.55 s
 Time Step:   3100, Simulation Time:     27.30 s
 Time Step:   3200, Simulation Time:     28.04 s
 Time Step:   3300, Simulation Time:     28.79 s
 Time Step:   3400, Simulation Time:     29.53 s
 Time Step:   3500, Simulation Time:     30.27 s
 Time Step:   3600, Simulation Time:     31.00 s
 Time Step:   3700, Simulation Time:     31.73 s
 Time Step:   3800, Simulation Time:     32.47 s
 Time Step:   3900, Simulation Time:     33.19 s
 Time Step:   4000, Simulation Time:     33.93 s
 Time Step:   4100, Simulation Time:     34.66 s
 Time Step:   4200, Simulation Time:     35.40 s
 Time Step:   4300, Simulation Time:     36.15 s
 Time Step:   4400, Simulation Time:     36.89 s
 Time Step:   4500, Simulation Time:     37.62 s
 Time Step:   4600, Simulation Time:     38.36 s
 Time Step:   4700, Simulation Time:     39.10 s
 Time Step:   4800, Simulation Time:     39.84 s
 Time Step:   4900, Simulation Time:     40.58 s
 Time Step:   5000, Simulation Time:     41.32 s
 Time Step:   5100, Simulation Time:     42.06 s
 Time Step:   5200, Simulation Time:     42.79 s
 Time Step:   5300, Simulation Time:     43.53 s
 Time Step:   5400, Simulation Time:     44.27 s
 Time Step:   5500, Simulation Time:     45.00 s
 Time Step:   5600, Simulation Time:     45.75 s
 Time Step:   5700, Simulation Time:     46.49 s
 Time Step:   5800, Simulation Time:     47.22 s
 Time Step:   5900, Simulation Time:     47.95 s
 Time Step:   6000, Simulation Time:     48.68 s
 Time Step:   6100, Simulation Time:     49.42 s
 Time Step:   6179, Simulation Time:     50.00 s
MPI process      0 has completed
MPI process      3 has completed
MPI process      1 has completed
MPI process      2 has completed

STOP: FDS completed successfully (CHID: atrium_with_fans)